*SPEF "ieee 1481-1999"
*DESIGN "user_proj_example"
*DATE "11:11:11 Fri 11 11, 1111"
*VENDOR "OpenRCX"
*PROGRAM "Parallel Extraction"
*VERSION "1.0"
*DESIGN_FLOW "NAME_SCOPE LOCAL" "PIN_CAP NONE"
*DIVIDER /
*DELIMITER :
*BUS_DELIMITER []
*T_UNIT 1 NS
*C_UNIT 1 PF
*R_UNIT 1 OHM
*L_UNIT 1 HENRY

*NAME_MAP
*1 io_in[0]
*2 io_in[10]
*3 io_in[11]
*4 io_in[12]
*5 io_in[13]
*6 io_in[14]
*7 io_in[15]
*8 io_in[16]
*9 io_in[17]
*10 io_in[18]
*11 io_in[19]
*12 io_in[1]
*13 io_in[20]
*14 io_in[21]
*15 io_in[22]
*16 io_in[23]
*17 io_in[24]
*18 io_in[25]
*19 io_in[26]
*20 io_in[27]
*21 io_in[28]
*22 io_in[29]
*23 io_in[2]
*24 io_in[30]
*25 io_in[31]
*26 io_in[32]
*27 io_in[33]
*28 io_in[34]
*29 io_in[35]
*30 io_in[36]
*31 io_in[37]
*32 io_in[3]
*33 io_in[4]
*34 io_in[5]
*35 io_in[6]
*36 io_in[7]
*37 io_in[8]
*38 io_in[9]
*39 net132
*40 net142
*41 net143
*42 net144
*43 net145
*44 net146
*45 net147
*46 net148
*47 net149
*48 net150
*49 net151
*50 net133
*51 net152
*52 net153
*53 net154
*54 net155
*55 net156
*56 net157
*57 net158
*58 net159
*59 net160
*60 net161
*61 net134
*62 net162
*63 net163
*64 net164
*65 net165
*66 net166
*67 net167
*68 net168
*69 net169
*70 net135
*71 net136
*72 net137
*73 net138
*74 net139
*75 net140
*76 net141
*77 net170
*78 net180
*79 net181
*80 net182
*81 net183
*82 net184
*83 net185
*84 net186
*85 net187
*86 net188
*87 net189
*88 net171
*89 net190
*90 net191
*91 net192
*92 net193
*93 net194
*94 net195
*95 net196
*96 net197
*97 net198
*98 net199
*99 net172
*100 net200
*101 net201
*102 net202
*103 net203
*104 net204
*105 net240
*106 net205
*107 net206
*108 net173
*109 net174
*110 net175
*111 net176
*112 net177
*113 net178
*114 net179
*115 net1
*116 net2
*117 net3
*118 la_data_in[0]
*119 la_data_in[100]
*120 la_data_in[101]
*121 la_data_in[102]
*122 la_data_in[103]
*123 la_data_in[104]
*124 la_data_in[105]
*125 la_data_in[106]
*126 la_data_in[107]
*127 la_data_in[108]
*128 la_data_in[109]
*129 la_data_in[10]
*130 la_data_in[110]
*131 la_data_in[111]
*132 la_data_in[112]
*133 la_data_in[113]
*134 la_data_in[114]
*135 la_data_in[115]
*136 la_data_in[116]
*137 la_data_in[117]
*138 la_data_in[118]
*139 la_data_in[119]
*140 la_data_in[11]
*141 la_data_in[120]
*142 la_data_in[121]
*143 la_data_in[122]
*144 la_data_in[123]
*145 la_data_in[124]
*146 la_data_in[125]
*147 la_data_in[126]
*148 la_data_in[127]
*149 la_data_in[12]
*150 la_data_in[13]
*151 la_data_in[14]
*152 la_data_in[15]
*153 la_data_in[16]
*154 la_data_in[17]
*155 la_data_in[18]
*156 la_data_in[19]
*157 la_data_in[1]
*158 la_data_in[20]
*159 la_data_in[21]
*160 la_data_in[22]
*161 la_data_in[23]
*162 la_data_in[24]
*163 la_data_in[25]
*164 la_data_in[26]
*165 la_data_in[27]
*166 la_data_in[28]
*167 la_data_in[29]
*168 la_data_in[2]
*169 la_data_in[30]
*170 la_data_in[31]
*171 la_data_in[32]
*172 la_data_in[33]
*173 la_data_in[34]
*174 la_data_in[35]
*175 la_data_in[36]
*176 la_data_in[37]
*177 la_data_in[38]
*178 la_data_in[39]
*179 la_data_in[3]
*180 la_data_in[40]
*181 la_data_in[41]
*182 la_data_in[42]
*183 la_data_in[43]
*184 la_data_in[44]
*185 la_data_in[45]
*186 la_data_in[46]
*187 la_data_in[47]
*188 la_data_in[48]
*189 la_data_in[49]
*190 la_data_in[4]
*191 la_data_in[50]
*192 la_data_in[51]
*193 la_data_in[52]
*194 la_data_in[53]
*195 la_data_in[54]
*196 la_data_in[55]
*197 la_data_in[56]
*198 la_data_in[57]
*199 la_data_in[58]
*200 la_data_in[59]
*201 la_data_in[5]
*202 la_data_in[60]
*203 la_data_in[61]
*204 la_data_in[62]
*205 la_data_in[63]
*206 la_data_in[64]
*207 la_data_in[65]
*208 la_data_in[66]
*209 la_data_in[67]
*210 la_data_in[68]
*211 la_data_in[69]
*212 la_data_in[6]
*213 la_data_in[70]
*214 la_data_in[71]
*215 la_data_in[72]
*216 la_data_in[73]
*217 la_data_in[74]
*218 la_data_in[75]
*219 la_data_in[76]
*220 la_data_in[77]
*221 la_data_in[78]
*222 la_data_in[79]
*223 la_data_in[7]
*224 la_data_in[80]
*225 la_data_in[81]
*226 la_data_in[82]
*227 la_data_in[83]
*228 la_data_in[84]
*229 la_data_in[85]
*230 la_data_in[86]
*231 la_data_in[87]
*232 la_data_in[88]
*233 la_data_in[89]
*234 la_data_in[8]
*235 la_data_in[90]
*236 la_data_in[91]
*237 la_data_in[92]
*238 la_data_in[93]
*239 la_data_in[94]
*240 la_data_in[95]
*241 la_data_in[96]
*242 la_data_in[97]
*243 la_data_in[98]
*244 la_data_in[99]
*245 la_data_in[9]
*246 net4
*247 net104
*248 net105
*249 net106
*250 net107
*251 net108
*252 net109
*253 net110
*254 net111
*255 net112
*256 net113
*257 net14
*258 net114
*259 net115
*260 net116
*261 net117
*262 net118
*263 net119
*264 net120
*265 net121
*266 net122
*267 net123
*268 net15
*269 net124
*270 net125
*271 net126
*272 net127
*273 net128
*274 net129
*275 net130
*276 net131
*277 net16
*278 net17
*279 net18
*280 net19
*281 net20
*282 net21
*283 net22
*284 net23
*285 net5
*286 net24
*287 net25
*288 net26
*289 net27
*290 net28
*291 net29
*292 net30
*293 net31
*294 net32
*295 net33
*296 net6
*297 net34
*298 net35
*299 net36
*300 net37
*301 net38
*302 net39
*303 net40
*304 net41
*305 net42
*306 net43
*307 net7
*308 net44
*309 net45
*310 net46
*311 net47
*312 net48
*313 net49
*314 net50
*315 net51
*316 net52
*317 net53
*318 net8
*319 net54
*320 net55
*321 net56
*322 net57
*323 net58
*324 net59
*325 net60
*326 net61
*327 net62
*328 net63
*329 net9
*330 net64
*331 net65
*332 net66
*333 net67
*334 net68
*335 net69
*336 net70
*337 net71
*338 net72
*339 net73
*340 net10
*341 net74
*342 net75
*343 net76
*344 net77
*345 net78
*346 net79
*347 net80
*348 net81
*349 net82
*350 net83
*351 net11
*352 net84
*353 net85
*354 net86
*355 net87
*356 net88
*357 net89
*358 net90
*359 net91
*360 net92
*361 net93
*362 net12
*363 net94
*364 net95
*365 net96
*366 net97
*367 net98
*368 net99
*369 net100
*370 net101
*371 net102
*372 net103
*373 net13
*374 la_oenb[0]
*375 la_oenb[100]
*376 la_oenb[101]
*377 la_oenb[102]
*378 la_oenb[103]
*379 la_oenb[104]
*380 la_oenb[105]
*381 la_oenb[106]
*382 la_oenb[107]
*383 la_oenb[108]
*384 la_oenb[109]
*385 la_oenb[10]
*386 la_oenb[110]
*387 la_oenb[111]
*388 la_oenb[112]
*389 la_oenb[113]
*390 la_oenb[114]
*391 la_oenb[115]
*392 la_oenb[116]
*393 la_oenb[117]
*394 la_oenb[118]
*395 la_oenb[119]
*396 la_oenb[11]
*397 la_oenb[120]
*398 la_oenb[121]
*399 la_oenb[122]
*400 la_oenb[123]
*401 la_oenb[124]
*402 la_oenb[125]
*403 la_oenb[126]
*404 la_oenb[127]
*405 la_oenb[12]
*406 la_oenb[13]
*407 la_oenb[14]
*408 la_oenb[15]
*409 la_oenb[16]
*410 la_oenb[17]
*411 la_oenb[18]
*412 la_oenb[19]
*413 la_oenb[1]
*414 la_oenb[20]
*415 la_oenb[21]
*416 la_oenb[22]
*417 la_oenb[23]
*418 la_oenb[24]
*419 la_oenb[25]
*420 la_oenb[26]
*421 la_oenb[27]
*422 la_oenb[28]
*423 la_oenb[29]
*424 la_oenb[2]
*425 la_oenb[30]
*426 la_oenb[31]
*427 la_oenb[32]
*428 la_oenb[33]
*429 la_oenb[34]
*430 la_oenb[35]
*431 la_oenb[36]
*432 la_oenb[37]
*433 la_oenb[38]
*434 la_oenb[39]
*435 la_oenb[3]
*436 la_oenb[40]
*437 la_oenb[41]
*438 la_oenb[42]
*439 la_oenb[43]
*440 la_oenb[44]
*441 la_oenb[45]
*442 la_oenb[46]
*443 la_oenb[47]
*444 la_oenb[48]
*445 la_oenb[49]
*446 la_oenb[4]
*447 la_oenb[50]
*448 la_oenb[51]
*449 la_oenb[52]
*450 la_oenb[53]
*451 la_oenb[54]
*452 la_oenb[55]
*453 la_oenb[56]
*454 la_oenb[57]
*455 la_oenb[58]
*456 la_oenb[59]
*457 la_oenb[5]
*458 la_oenb[60]
*459 la_oenb[61]
*460 la_oenb[62]
*461 la_oenb[63]
*462 la_oenb[64]
*463 la_oenb[65]
*464 la_oenb[66]
*465 la_oenb[67]
*466 la_oenb[68]
*467 la_oenb[69]
*468 la_oenb[6]
*469 la_oenb[70]
*470 la_oenb[71]
*471 la_oenb[72]
*472 la_oenb[73]
*473 la_oenb[74]
*474 la_oenb[75]
*475 la_oenb[76]
*476 la_oenb[77]
*477 la_oenb[78]
*478 la_oenb[79]
*479 la_oenb[7]
*480 la_oenb[80]
*481 la_oenb[81]
*482 la_oenb[82]
*483 la_oenb[83]
*484 la_oenb[84]
*485 la_oenb[85]
*486 la_oenb[86]
*487 la_oenb[87]
*488 la_oenb[88]
*489 la_oenb[89]
*490 la_oenb[8]
*491 la_oenb[90]
*492 la_oenb[91]
*493 la_oenb[92]
*494 la_oenb[93]
*495 la_oenb[94]
*496 la_oenb[95]
*497 la_oenb[96]
*498 la_oenb[97]
*499 la_oenb[98]
*500 la_oenb[99]
*501 la_oenb[9]
*504 wb_clk_i
*505 wb_rst_i
*506 net207
*507 wbs_adr_i[0]
*508 wbs_adr_i[10]
*509 wbs_adr_i[11]
*510 wbs_adr_i[12]
*511 wbs_adr_i[13]
*512 wbs_adr_i[14]
*513 wbs_adr_i[15]
*514 wbs_adr_i[16]
*515 wbs_adr_i[17]
*516 wbs_adr_i[18]
*517 wbs_adr_i[19]
*518 wbs_adr_i[1]
*519 wbs_adr_i[20]
*520 wbs_adr_i[21]
*521 wbs_adr_i[22]
*522 wbs_adr_i[23]
*523 wbs_adr_i[24]
*524 wbs_adr_i[25]
*525 wbs_adr_i[26]
*526 wbs_adr_i[27]
*527 wbs_adr_i[28]
*528 wbs_adr_i[29]
*529 wbs_adr_i[2]
*530 wbs_adr_i[30]
*531 wbs_adr_i[31]
*532 wbs_adr_i[3]
*533 wbs_adr_i[4]
*534 wbs_adr_i[5]
*535 wbs_adr_i[6]
*536 wbs_adr_i[7]
*537 wbs_adr_i[8]
*538 wbs_adr_i[9]
*539 wbs_cyc_i
*540 wbs_dat_i[0]
*541 wbs_dat_i[10]
*542 wbs_dat_i[11]
*543 wbs_dat_i[12]
*544 wbs_dat_i[13]
*545 wbs_dat_i[14]
*546 wbs_dat_i[15]
*547 wbs_dat_i[16]
*548 wbs_dat_i[17]
*549 wbs_dat_i[18]
*550 wbs_dat_i[19]
*551 wbs_dat_i[1]
*552 wbs_dat_i[20]
*553 wbs_dat_i[21]
*554 wbs_dat_i[22]
*555 wbs_dat_i[23]
*556 wbs_dat_i[24]
*557 wbs_dat_i[25]
*558 wbs_dat_i[26]
*559 wbs_dat_i[27]
*560 wbs_dat_i[28]
*561 wbs_dat_i[29]
*562 wbs_dat_i[2]
*563 wbs_dat_i[30]
*564 wbs_dat_i[31]
*565 wbs_dat_i[3]
*566 wbs_dat_i[4]
*567 wbs_dat_i[5]
*568 wbs_dat_i[6]
*569 wbs_dat_i[7]
*570 wbs_dat_i[8]
*571 wbs_dat_i[9]
*572 net208
*573 net218
*574 net219
*575 net220
*576 net221
*577 net222
*578 net223
*579 net224
*580 net225
*581 net226
*582 net227
*583 net209
*584 net228
*585 net229
*586 net230
*587 net231
*588 net232
*589 net233
*590 net234
*591 net235
*592 net236
*593 net237
*594 net210
*595 net238
*596 net239
*597 net211
*598 net212
*599 net213
*600 net214
*601 net215
*602 net216
*603 net217
*604 wbs_sel_i[0]
*605 wbs_sel_i[1]
*606 wbs_sel_i[2]
*607 wbs_sel_i[3]
*608 wbs_stb_i
*609 wbs_we_i
*610 FILLER_0_1002
*611 FILLER_0_1009
*612 FILLER_0_1014
*613 FILLER_0_1021
*614 FILLER_0_1025
*615 FILLER_0_1029
*616 FILLER_0_1035
*617 FILLER_0_1037
*618 FILLER_0_1042
*619 FILLER_0_1049
*620 FILLER_0_1056
*621 FILLER_0_1065
*622 FILLER_0_1070
*623 FILLER_0_1077
*624 FILLER_0_1084
*625 FILLER_0_109
*626 FILLER_0_1093
*627 FILLER_0_1098
*628 FILLER_0_1105
*629 FILLER_0_1112
*630 FILLER_0_1121
*631 FILLER_0_1126
*632 FILLER_0_113
*633 FILLER_0_1133
*634 FILLER_0_1140
*635 FILLER_0_1149
*636 FILLER_0_1154
*637 FILLER_0_1161
*638 FILLER_0_1168
*639 FILLER_0_1177
*640 FILLER_0_1182
*641 FILLER_0_1189
*642 FILLER_0_1196
*643 FILLER_0_1205
*644 FILLER_0_1210
*645 FILLER_0_1214
*646 FILLER_0_1218
*647 FILLER_0_1227
*648 FILLER_0_1231
*649 FILLER_0_1233
*650 FILLER_0_1238
*651 FILLER_0_1245
*652 FILLER_0_125
*653 FILLER_0_1254
*654 FILLER_0_1261
*655 FILLER_0_1266
*656 FILLER_0_1273
*657 FILLER_0_1277
*658 FILLER_0_1281
*659 FILLER_0_1287
*660 FILLER_0_1289
*661 FILLER_0_1294
*662 FILLER_0_1301
*663 FILLER_0_1308
*664 FILLER_0_1317
*665 FILLER_0_1322
*666 FILLER_0_1329
*667 FILLER_0_1336
*668 FILLER_0_1345
*669 FILLER_0_1350
*670 FILLER_0_1357
*671 FILLER_0_1364
*672 FILLER_0_137
*673 FILLER_0_1373
*674 FILLER_0_1378
*675 FILLER_0_1385
*676 FILLER_0_1392
*677 FILLER_0_1401
*678 FILLER_0_1406
*679 FILLER_0_141
*680 FILLER_0_1413
*681 FILLER_0_1420
*682 FILLER_0_1429
*683 FILLER_0_1434
*684 FILLER_0_1441
*685 FILLER_0_1448
*686 FILLER_0_1457
*687 FILLER_0_1462
*688 FILLER_0_1466
*689 FILLER_0_1470
*690 FILLER_0_1479
*691 FILLER_0_1483
*692 FILLER_0_1485
*693 FILLER_0_1490
*694 FILLER_0_1497
*695 FILLER_0_15
*696 FILLER_0_1506
*697 FILLER_0_1513
*698 FILLER_0_1518
*699 FILLER_0_1525
*700 FILLER_0_1529
*701 FILLER_0_153
*702 FILLER_0_1533
*703 FILLER_0_1539
*704 FILLER_0_1541
*705 FILLER_0_1546
*706 FILLER_0_1553
*707 FILLER_0_1560
*708 FILLER_0_1569
*709 FILLER_0_1574
*710 FILLER_0_1581
*711 FILLER_0_1588
*712 FILLER_0_1597
*713 FILLER_0_1602
*714 FILLER_0_1609
*715 FILLER_0_1616
*716 FILLER_0_1625
*717 FILLER_0_1630
*718 FILLER_0_1637
*719 FILLER_0_1644
*720 FILLER_0_165
*721 FILLER_0_1653
*722 FILLER_0_1658
*723 FILLER_0_1665
*724 FILLER_0_1672
*725 FILLER_0_1681
*726 FILLER_0_1686
*727 FILLER_0_169
*728 FILLER_0_1693
*729 FILLER_0_1700
*730 FILLER_0_1709
*731 FILLER_0_1714
*732 FILLER_0_1726
*733 FILLER_0_1734
*734 FILLER_0_1737
*735 FILLER_0_1749
*736 FILLER_0_1761
*737 FILLER_0_1765
*738 FILLER_0_1777
*739 FILLER_0_1789
*740 FILLER_0_1793
*741 FILLER_0_1805
*742 FILLER_0_181
*743 FILLER_0_1817
*744 FILLER_0_1821
*745 FILLER_0_1833
*746 FILLER_0_1845
*747 FILLER_0_1849
*748 FILLER_0_1861
*749 FILLER_0_1873
*750 FILLER_0_1877
*751 FILLER_0_1889
*752 FILLER_0_1901
*753 FILLER_0_1905
*754 FILLER_0_1917
*755 FILLER_0_193
*756 FILLER_0_197
*757 FILLER_0_209
*758 FILLER_0_221
*759 FILLER_0_225
*760 FILLER_0_233
*761 FILLER_0_237
*762 FILLER_0_249
*763 FILLER_0_253
*764 FILLER_0_258
*765 FILLER_0_267
*766 FILLER_0_27
*767 FILLER_0_278
*768 FILLER_0_281
*769 FILLER_0_287
*770 FILLER_0_29
*771 FILLER_0_291
*772 FILLER_0_299
*773 FILLER_0_3
*774 FILLER_0_303
*775 FILLER_0_307
*776 FILLER_0_309
*777 FILLER_0_320
*778 FILLER_0_327
*779 FILLER_0_334
*780 FILLER_0_337
*781 FILLER_0_348
*782 FILLER_0_355
*783 FILLER_0_362
*784 FILLER_0_365
*785 FILLER_0_371
*786 FILLER_0_375
*787 FILLER_0_379
*788 FILLER_0_383
*789 FILLER_0_390
*790 FILLER_0_393
*791 FILLER_0_402
*792 FILLER_0_41
*793 FILLER_0_411
*794 FILLER_0_418
*795 FILLER_0_421
*796 FILLER_0_425
*797 FILLER_0_429
*798 FILLER_0_438
*799 FILLER_0_442
*800 FILLER_0_446
*801 FILLER_0_449
*802 FILLER_0_456
*803 FILLER_0_465
*804 FILLER_0_474
*805 FILLER_0_477
*806 FILLER_0_483
*807 FILLER_0_492
*808 FILLER_0_501
*809 FILLER_0_505
*810 FILLER_0_510
*811 FILLER_0_519
*812 FILLER_0_528
*813 FILLER_0_53
*814 FILLER_0_533
*815 FILLER_0_544
*816 FILLER_0_551
*817 FILLER_0_558
*818 FILLER_0_561
*819 FILLER_0_57
*820 FILLER_0_570
*821 FILLER_0_579
*822 FILLER_0_586
*823 FILLER_0_589
*824 FILLER_0_593
*825 FILLER_0_597
*826 FILLER_0_606
*827 FILLER_0_610
*828 FILLER_0_614
*829 FILLER_0_617
*830 FILLER_0_624
*831 FILLER_0_633
*832 FILLER_0_642
*833 FILLER_0_645
*834 FILLER_0_651
*835 FILLER_0_660
*836 FILLER_0_669
*837 FILLER_0_673
*838 FILLER_0_678
*839 FILLER_0_687
*840 FILLER_0_69
*841 FILLER_0_696
*842 FILLER_0_701
*843 FILLER_0_712
*844 FILLER_0_719
*845 FILLER_0_726
*846 FILLER_0_729
*847 FILLER_0_740
*848 FILLER_0_747
*849 FILLER_0_754
*850 FILLER_0_757
*851 FILLER_0_768
*852 FILLER_0_775
*853 FILLER_0_782
*854 FILLER_0_785
*855 FILLER_0_791
*856 FILLER_0_795
*857 FILLER_0_799
*858 FILLER_0_803
*859 FILLER_0_81
*860 FILLER_0_810
*861 FILLER_0_813
*862 FILLER_0_822
*863 FILLER_0_831
*864 FILLER_0_838
*865 FILLER_0_841
*866 FILLER_0_845
*867 FILLER_0_849
*868 FILLER_0_85
*869 FILLER_0_858
*870 FILLER_0_862
*871 FILLER_0_866
*872 FILLER_0_869
*873 FILLER_0_876
*874 FILLER_0_885
*875 FILLER_0_894
*876 FILLER_0_897
*877 FILLER_0_903
*878 FILLER_0_912
*879 FILLER_0_921
*880 FILLER_0_925
*881 FILLER_0_930
*882 FILLER_0_939
*883 FILLER_0_948
*884 FILLER_0_953
*885 FILLER_0_958
*886 FILLER_0_962
*887 FILLER_0_966
*888 FILLER_0_97
*889 FILLER_0_975
*890 FILLER_0_979
*891 FILLER_0_981
*892 FILLER_0_986
*893 FILLER_0_993
*894 FILLER_100_1005
*895 FILLER_100_1017
*896 FILLER_100_1029
*897 FILLER_100_1035
*898 FILLER_100_1037
*899 FILLER_100_1049
*900 FILLER_100_1061
*901 FILLER_100_1073
*902 FILLER_100_1085
*903 FILLER_100_109
*904 FILLER_100_1091
*905 FILLER_100_1093
*906 FILLER_100_1105
*907 FILLER_100_1117
*908 FILLER_100_1129
*909 FILLER_100_1141
*910 FILLER_100_1147
*911 FILLER_100_1149
*912 FILLER_100_1161
*913 FILLER_100_1173
*914 FILLER_100_1185
*915 FILLER_100_1197
*916 FILLER_100_1203
*917 FILLER_100_1205
*918 FILLER_100_121
*919 FILLER_100_1217
*920 FILLER_100_1229
*921 FILLER_100_1241
*922 FILLER_100_1253
*923 FILLER_100_1259
*924 FILLER_100_1261
*925 FILLER_100_1273
*926 FILLER_100_1285
*927 FILLER_100_1297
*928 FILLER_100_1309
*929 FILLER_100_1315
*930 FILLER_100_1317
*931 FILLER_100_1329
*932 FILLER_100_133
*933 FILLER_100_1341
*934 FILLER_100_1353
*935 FILLER_100_1365
*936 FILLER_100_1371
*937 FILLER_100_1373
*938 FILLER_100_1385
*939 FILLER_100_139
*940 FILLER_100_1397
*941 FILLER_100_1409
*942 FILLER_100_141
*943 FILLER_100_1421
*944 FILLER_100_1427
*945 FILLER_100_1429
*946 FILLER_100_1441
*947 FILLER_100_1453
*948 FILLER_100_1465
*949 FILLER_100_1477
*950 FILLER_100_1483
*951 FILLER_100_1485
*952 FILLER_100_1497
*953 FILLER_100_15
*954 FILLER_100_1509
*955 FILLER_100_1521
*956 FILLER_100_153
*957 FILLER_100_1533
*958 FILLER_100_1539
*959 FILLER_100_1541
*960 FILLER_100_1553
*961 FILLER_100_1565
*962 FILLER_100_1577
*963 FILLER_100_1589
*964 FILLER_100_1595
*965 FILLER_100_1597
*966 FILLER_100_1609
*967 FILLER_100_1621
*968 FILLER_100_1633
*969 FILLER_100_1645
*970 FILLER_100_165
*971 FILLER_100_1651
*972 FILLER_100_1653
*973 FILLER_100_1665
*974 FILLER_100_1677
*975 FILLER_100_1689
*976 FILLER_100_1701
*977 FILLER_100_1707
*978 FILLER_100_1709
*979 FILLER_100_1721
*980 FILLER_100_1733
*981 FILLER_100_1745
*982 FILLER_100_1757
*983 FILLER_100_1763
*984 FILLER_100_1765
*985 FILLER_100_177
*986 FILLER_100_1777
*987 FILLER_100_1789
*988 FILLER_100_1801
*989 FILLER_100_1813
*990 FILLER_100_1819
*991 FILLER_100_1821
*992 FILLER_100_1833
*993 FILLER_100_1845
*994 FILLER_100_1857
*995 FILLER_100_1869
*996 FILLER_100_1875
*997 FILLER_100_1877
*998 FILLER_100_1889
*999 FILLER_100_189
*1000 FILLER_100_1901
*1001 FILLER_100_1913
*1002 FILLER_100_1925
*1003 FILLER_100_195
*1004 FILLER_100_197
*1005 FILLER_100_209
*1006 FILLER_100_221
*1007 FILLER_100_233
*1008 FILLER_100_245
*1009 FILLER_100_251
*1010 FILLER_100_253
*1011 FILLER_100_265
*1012 FILLER_100_27
*1013 FILLER_100_277
*1014 FILLER_100_289
*1015 FILLER_100_29
*1016 FILLER_100_3
*1017 FILLER_100_301
*1018 FILLER_100_307
*1019 FILLER_100_309
*1020 FILLER_100_321
*1021 FILLER_100_333
*1022 FILLER_100_345
*1023 FILLER_100_357
*1024 FILLER_100_363
*1025 FILLER_100_365
*1026 FILLER_100_377
*1027 FILLER_100_389
*1028 FILLER_100_401
*1029 FILLER_100_41
*1030 FILLER_100_413
*1031 FILLER_100_419
*1032 FILLER_100_421
*1033 FILLER_100_433
*1034 FILLER_100_445
*1035 FILLER_100_457
*1036 FILLER_100_469
*1037 FILLER_100_475
*1038 FILLER_100_477
*1039 FILLER_100_489
*1040 FILLER_100_501
*1041 FILLER_100_513
*1042 FILLER_100_525
*1043 FILLER_100_53
*1044 FILLER_100_531
*1045 FILLER_100_533
*1046 FILLER_100_545
*1047 FILLER_100_557
*1048 FILLER_100_569
*1049 FILLER_100_581
*1050 FILLER_100_587
*1051 FILLER_100_589
*1052 FILLER_100_601
*1053 FILLER_100_613
*1054 FILLER_100_625
*1055 FILLER_100_637
*1056 FILLER_100_643
*1057 FILLER_100_645
*1058 FILLER_100_65
*1059 FILLER_100_657
*1060 FILLER_100_669
*1061 FILLER_100_681
*1062 FILLER_100_693
*1063 FILLER_100_699
*1064 FILLER_100_701
*1065 FILLER_100_713
*1066 FILLER_100_725
*1067 FILLER_100_737
*1068 FILLER_100_749
*1069 FILLER_100_755
*1070 FILLER_100_757
*1071 FILLER_100_769
*1072 FILLER_100_77
*1073 FILLER_100_781
*1074 FILLER_100_793
*1075 FILLER_100_805
*1076 FILLER_100_811
*1077 FILLER_100_813
*1078 FILLER_100_825
*1079 FILLER_100_83
*1080 FILLER_100_837
*1081 FILLER_100_849
*1082 FILLER_100_85
*1083 FILLER_100_861
*1084 FILLER_100_867
*1085 FILLER_100_869
*1086 FILLER_100_881
*1087 FILLER_100_893
*1088 FILLER_100_905
*1089 FILLER_100_917
*1090 FILLER_100_923
*1091 FILLER_100_925
*1092 FILLER_100_937
*1093 FILLER_100_949
*1094 FILLER_100_961
*1095 FILLER_100_97
*1096 FILLER_100_973
*1097 FILLER_100_979
*1098 FILLER_100_981
*1099 FILLER_100_993
*1100 FILLER_101_1001
*1101 FILLER_101_1007
*1102 FILLER_101_1009
*1103 FILLER_101_1021
*1104 FILLER_101_1033
*1105 FILLER_101_1045
*1106 FILLER_101_105
*1107 FILLER_101_1057
*1108 FILLER_101_1063
*1109 FILLER_101_1065
*1110 FILLER_101_1077
*1111 FILLER_101_1089
*1112 FILLER_101_1101
*1113 FILLER_101_111
*1114 FILLER_101_1113
*1115 FILLER_101_1119
*1116 FILLER_101_1121
*1117 FILLER_101_113
*1118 FILLER_101_1133
*1119 FILLER_101_1145
*1120 FILLER_101_1157
*1121 FILLER_101_1169
*1122 FILLER_101_1175
*1123 FILLER_101_1177
*1124 FILLER_101_1189
*1125 FILLER_101_1201
*1126 FILLER_101_1213
*1127 FILLER_101_1225
*1128 FILLER_101_1231
*1129 FILLER_101_1233
*1130 FILLER_101_1245
*1131 FILLER_101_125
*1132 FILLER_101_1257
*1133 FILLER_101_1269
*1134 FILLER_101_1281
*1135 FILLER_101_1287
*1136 FILLER_101_1289
*1137 FILLER_101_1301
*1138 FILLER_101_1313
*1139 FILLER_101_1325
*1140 FILLER_101_1337
*1141 FILLER_101_1343
*1142 FILLER_101_1345
*1143 FILLER_101_1357
*1144 FILLER_101_1369
*1145 FILLER_101_137
*1146 FILLER_101_1381
*1147 FILLER_101_1393
*1148 FILLER_101_1399
*1149 FILLER_101_1401
*1150 FILLER_101_1413
*1151 FILLER_101_1425
*1152 FILLER_101_1437
*1153 FILLER_101_1449
*1154 FILLER_101_1455
*1155 FILLER_101_1457
*1156 FILLER_101_1469
*1157 FILLER_101_1481
*1158 FILLER_101_149
*1159 FILLER_101_1493
*1160 FILLER_101_15
*1161 FILLER_101_1505
*1162 FILLER_101_1511
*1163 FILLER_101_1513
*1164 FILLER_101_1525
*1165 FILLER_101_1537
*1166 FILLER_101_1549
*1167 FILLER_101_1561
*1168 FILLER_101_1567
*1169 FILLER_101_1569
*1170 FILLER_101_1581
*1171 FILLER_101_1593
*1172 FILLER_101_1605
*1173 FILLER_101_161
*1174 FILLER_101_1617
*1175 FILLER_101_1623
*1176 FILLER_101_1625
*1177 FILLER_101_1637
*1178 FILLER_101_1649
*1179 FILLER_101_1661
*1180 FILLER_101_167
*1181 FILLER_101_1673
*1182 FILLER_101_1679
*1183 FILLER_101_1681
*1184 FILLER_101_169
*1185 FILLER_101_1693
*1186 FILLER_101_1705
*1187 FILLER_101_1717
*1188 FILLER_101_1729
*1189 FILLER_101_1735
*1190 FILLER_101_1737
*1191 FILLER_101_1749
*1192 FILLER_101_1761
*1193 FILLER_101_1773
*1194 FILLER_101_1785
*1195 FILLER_101_1791
*1196 FILLER_101_1793
*1197 FILLER_101_1805
*1198 FILLER_101_181
*1199 FILLER_101_1817
*1200 FILLER_101_1829
*1201 FILLER_101_1841
*1202 FILLER_101_1847
*1203 FILLER_101_1849
*1204 FILLER_101_1861
*1205 FILLER_101_1873
*1206 FILLER_101_1885
*1207 FILLER_101_1897
*1208 FILLER_101_1903
*1209 FILLER_101_1905
*1210 FILLER_101_1917
*1211 FILLER_101_193
*1212 FILLER_101_205
*1213 FILLER_101_217
*1214 FILLER_101_223
*1215 FILLER_101_225
*1216 FILLER_101_237
*1217 FILLER_101_249
*1218 FILLER_101_261
*1219 FILLER_101_27
*1220 FILLER_101_273
*1221 FILLER_101_279
*1222 FILLER_101_281
*1223 FILLER_101_293
*1224 FILLER_101_3
*1225 FILLER_101_305
*1226 FILLER_101_317
*1227 FILLER_101_329
*1228 FILLER_101_335
*1229 FILLER_101_337
*1230 FILLER_101_349
*1231 FILLER_101_361
*1232 FILLER_101_373
*1233 FILLER_101_385
*1234 FILLER_101_39
*1235 FILLER_101_391
*1236 FILLER_101_393
*1237 FILLER_101_405
*1238 FILLER_101_417
*1239 FILLER_101_429
*1240 FILLER_101_441
*1241 FILLER_101_447
*1242 FILLER_101_449
*1243 FILLER_101_461
*1244 FILLER_101_473
*1245 FILLER_101_485
*1246 FILLER_101_497
*1247 FILLER_101_503
*1248 FILLER_101_505
*1249 FILLER_101_51
*1250 FILLER_101_517
*1251 FILLER_101_529
*1252 FILLER_101_541
*1253 FILLER_101_55
*1254 FILLER_101_553
*1255 FILLER_101_559
*1256 FILLER_101_561
*1257 FILLER_101_57
*1258 FILLER_101_573
*1259 FILLER_101_585
*1260 FILLER_101_597
*1261 FILLER_101_609
*1262 FILLER_101_615
*1263 FILLER_101_617
*1264 FILLER_101_629
*1265 FILLER_101_641
*1266 FILLER_101_653
*1267 FILLER_101_665
*1268 FILLER_101_671
*1269 FILLER_101_673
*1270 FILLER_101_685
*1271 FILLER_101_69
*1272 FILLER_101_697
*1273 FILLER_101_709
*1274 FILLER_101_721
*1275 FILLER_101_727
*1276 FILLER_101_729
*1277 FILLER_101_741
*1278 FILLER_101_753
*1279 FILLER_101_765
*1280 FILLER_101_777
*1281 FILLER_101_783
*1282 FILLER_101_785
*1283 FILLER_101_797
*1284 FILLER_101_809
*1285 FILLER_101_81
*1286 FILLER_101_821
*1287 FILLER_101_833
*1288 FILLER_101_839
*1289 FILLER_101_841
*1290 FILLER_101_853
*1291 FILLER_101_865
*1292 FILLER_101_877
*1293 FILLER_101_889
*1294 FILLER_101_895
*1295 FILLER_101_897
*1296 FILLER_101_909
*1297 FILLER_101_921
*1298 FILLER_101_93
*1299 FILLER_101_933
*1300 FILLER_101_945
*1301 FILLER_101_951
*1302 FILLER_101_953
*1303 FILLER_101_965
*1304 FILLER_101_977
*1305 FILLER_101_989
*1306 FILLER_102_1005
*1307 FILLER_102_1017
*1308 FILLER_102_1029
*1309 FILLER_102_1035
*1310 FILLER_102_1037
*1311 FILLER_102_1049
*1312 FILLER_102_1061
*1313 FILLER_102_1073
*1314 FILLER_102_1085
*1315 FILLER_102_109
*1316 FILLER_102_1091
*1317 FILLER_102_1093
*1318 FILLER_102_1105
*1319 FILLER_102_1117
*1320 FILLER_102_1129
*1321 FILLER_102_1141
*1322 FILLER_102_1147
*1323 FILLER_102_1149
*1324 FILLER_102_1161
*1325 FILLER_102_1173
*1326 FILLER_102_1185
*1327 FILLER_102_1197
*1328 FILLER_102_1203
*1329 FILLER_102_1205
*1330 FILLER_102_121
*1331 FILLER_102_1217
*1332 FILLER_102_1229
*1333 FILLER_102_1241
*1334 FILLER_102_1253
*1335 FILLER_102_1259
*1336 FILLER_102_1261
*1337 FILLER_102_1273
*1338 FILLER_102_1285
*1339 FILLER_102_1297
*1340 FILLER_102_1309
*1341 FILLER_102_1315
*1342 FILLER_102_1317
*1343 FILLER_102_1329
*1344 FILLER_102_133
*1345 FILLER_102_1341
*1346 FILLER_102_1353
*1347 FILLER_102_1365
*1348 FILLER_102_1371
*1349 FILLER_102_1373
*1350 FILLER_102_1385
*1351 FILLER_102_139
*1352 FILLER_102_1397
*1353 FILLER_102_1409
*1354 FILLER_102_141
*1355 FILLER_102_1421
*1356 FILLER_102_1427
*1357 FILLER_102_1429
*1358 FILLER_102_1441
*1359 FILLER_102_1453
*1360 FILLER_102_1465
*1361 FILLER_102_1477
*1362 FILLER_102_1483
*1363 FILLER_102_1485
*1364 FILLER_102_1497
*1365 FILLER_102_15
*1366 FILLER_102_1509
*1367 FILLER_102_1521
*1368 FILLER_102_153
*1369 FILLER_102_1533
*1370 FILLER_102_1539
*1371 FILLER_102_1541
*1372 FILLER_102_1553
*1373 FILLER_102_1565
*1374 FILLER_102_1577
*1375 FILLER_102_1589
*1376 FILLER_102_1595
*1377 FILLER_102_1597
*1378 FILLER_102_1609
*1379 FILLER_102_1621
*1380 FILLER_102_1633
*1381 FILLER_102_1645
*1382 FILLER_102_165
*1383 FILLER_102_1651
*1384 FILLER_102_1653
*1385 FILLER_102_1665
*1386 FILLER_102_1677
*1387 FILLER_102_1689
*1388 FILLER_102_1701
*1389 FILLER_102_1707
*1390 FILLER_102_1709
*1391 FILLER_102_1721
*1392 FILLER_102_1733
*1393 FILLER_102_1745
*1394 FILLER_102_1757
*1395 FILLER_102_1763
*1396 FILLER_102_1765
*1397 FILLER_102_177
*1398 FILLER_102_1777
*1399 FILLER_102_1789
*1400 FILLER_102_1801
*1401 FILLER_102_1813
*1402 FILLER_102_1819
*1403 FILLER_102_1821
*1404 FILLER_102_1833
*1405 FILLER_102_1845
*1406 FILLER_102_1857
*1407 FILLER_102_1869
*1408 FILLER_102_1875
*1409 FILLER_102_1877
*1410 FILLER_102_1889
*1411 FILLER_102_189
*1412 FILLER_102_1901
*1413 FILLER_102_1913
*1414 FILLER_102_1925
*1415 FILLER_102_195
*1416 FILLER_102_197
*1417 FILLER_102_209
*1418 FILLER_102_221
*1419 FILLER_102_233
*1420 FILLER_102_245
*1421 FILLER_102_251
*1422 FILLER_102_253
*1423 FILLER_102_265
*1424 FILLER_102_27
*1425 FILLER_102_277
*1426 FILLER_102_289
*1427 FILLER_102_29
*1428 FILLER_102_3
*1429 FILLER_102_301
*1430 FILLER_102_307
*1431 FILLER_102_309
*1432 FILLER_102_321
*1433 FILLER_102_333
*1434 FILLER_102_345
*1435 FILLER_102_357
*1436 FILLER_102_363
*1437 FILLER_102_365
*1438 FILLER_102_377
*1439 FILLER_102_389
*1440 FILLER_102_401
*1441 FILLER_102_41
*1442 FILLER_102_413
*1443 FILLER_102_419
*1444 FILLER_102_421
*1445 FILLER_102_433
*1446 FILLER_102_445
*1447 FILLER_102_457
*1448 FILLER_102_469
*1449 FILLER_102_475
*1450 FILLER_102_477
*1451 FILLER_102_489
*1452 FILLER_102_501
*1453 FILLER_102_513
*1454 FILLER_102_525
*1455 FILLER_102_53
*1456 FILLER_102_531
*1457 FILLER_102_533
*1458 FILLER_102_545
*1459 FILLER_102_557
*1460 FILLER_102_569
*1461 FILLER_102_581
*1462 FILLER_102_587
*1463 FILLER_102_589
*1464 FILLER_102_601
*1465 FILLER_102_613
*1466 FILLER_102_625
*1467 FILLER_102_637
*1468 FILLER_102_643
*1469 FILLER_102_645
*1470 FILLER_102_65
*1471 FILLER_102_657
*1472 FILLER_102_669
*1473 FILLER_102_681
*1474 FILLER_102_693
*1475 FILLER_102_699
*1476 FILLER_102_701
*1477 FILLER_102_713
*1478 FILLER_102_725
*1479 FILLER_102_737
*1480 FILLER_102_749
*1481 FILLER_102_755
*1482 FILLER_102_757
*1483 FILLER_102_769
*1484 FILLER_102_77
*1485 FILLER_102_781
*1486 FILLER_102_793
*1487 FILLER_102_805
*1488 FILLER_102_811
*1489 FILLER_102_813
*1490 FILLER_102_825
*1491 FILLER_102_83
*1492 FILLER_102_837
*1493 FILLER_102_849
*1494 FILLER_102_85
*1495 FILLER_102_861
*1496 FILLER_102_867
*1497 FILLER_102_869
*1498 FILLER_102_881
*1499 FILLER_102_893
*1500 FILLER_102_905
*1501 FILLER_102_917
*1502 FILLER_102_923
*1503 FILLER_102_925
*1504 FILLER_102_937
*1505 FILLER_102_949
*1506 FILLER_102_961
*1507 FILLER_102_97
*1508 FILLER_102_973
*1509 FILLER_102_979
*1510 FILLER_102_981
*1511 FILLER_102_993
*1512 FILLER_103_1001
*1513 FILLER_103_1007
*1514 FILLER_103_1009
*1515 FILLER_103_1021
*1516 FILLER_103_1033
*1517 FILLER_103_1045
*1518 FILLER_103_105
*1519 FILLER_103_1057
*1520 FILLER_103_1063
*1521 FILLER_103_1065
*1522 FILLER_103_1077
*1523 FILLER_103_1089
*1524 FILLER_103_1101
*1525 FILLER_103_111
*1526 FILLER_103_1113
*1527 FILLER_103_1119
*1528 FILLER_103_1121
*1529 FILLER_103_113
*1530 FILLER_103_1133
*1531 FILLER_103_1145
*1532 FILLER_103_1157
*1533 FILLER_103_1169
*1534 FILLER_103_1175
*1535 FILLER_103_1177
*1536 FILLER_103_1189
*1537 FILLER_103_1201
*1538 FILLER_103_1213
*1539 FILLER_103_1225
*1540 FILLER_103_1231
*1541 FILLER_103_1233
*1542 FILLER_103_1245
*1543 FILLER_103_125
*1544 FILLER_103_1257
*1545 FILLER_103_1269
*1546 FILLER_103_1281
*1547 FILLER_103_1287
*1548 FILLER_103_1289
*1549 FILLER_103_1301
*1550 FILLER_103_1313
*1551 FILLER_103_1325
*1552 FILLER_103_1337
*1553 FILLER_103_1343
*1554 FILLER_103_1345
*1555 FILLER_103_1357
*1556 FILLER_103_1369
*1557 FILLER_103_137
*1558 FILLER_103_1381
*1559 FILLER_103_1393
*1560 FILLER_103_1399
*1561 FILLER_103_1401
*1562 FILLER_103_1413
*1563 FILLER_103_1425
*1564 FILLER_103_1437
*1565 FILLER_103_1449
*1566 FILLER_103_1455
*1567 FILLER_103_1457
*1568 FILLER_103_1469
*1569 FILLER_103_1481
*1570 FILLER_103_149
*1571 FILLER_103_1493
*1572 FILLER_103_15
*1573 FILLER_103_1505
*1574 FILLER_103_1511
*1575 FILLER_103_1513
*1576 FILLER_103_1525
*1577 FILLER_103_1537
*1578 FILLER_103_1549
*1579 FILLER_103_1561
*1580 FILLER_103_1567
*1581 FILLER_103_1569
*1582 FILLER_103_1581
*1583 FILLER_103_1593
*1584 FILLER_103_1605
*1585 FILLER_103_161
*1586 FILLER_103_1617
*1587 FILLER_103_1623
*1588 FILLER_103_1625
*1589 FILLER_103_1637
*1590 FILLER_103_1649
*1591 FILLER_103_1661
*1592 FILLER_103_167
*1593 FILLER_103_1673
*1594 FILLER_103_1679
*1595 FILLER_103_1681
*1596 FILLER_103_169
*1597 FILLER_103_1693
*1598 FILLER_103_1705
*1599 FILLER_103_1717
*1600 FILLER_103_1729
*1601 FILLER_103_1735